45
2000000
Nd        -1.03599        8.02856        3.31608
Co        -0.62392       10.34921        0.00000
O         -1.80276        9.18771        5.65862
O         -0.07081        9.96429        4.58502
O          0.25769        9.18396        1.52901
O          1.51649        8.15670        2.98311
O         -1.76874       11.38836        1.40617
O         -2.54827        9.87868        2.85827
O         -2.04930        8.84792       -0.43643
O         -2.09654        7.42419        1.28433
O         -0.06724        6.84585        5.30608
O          1.89643        1.58039        3.25975
O         -0.40861        5.73357        2.60860
O         -2.91632        2.03255        9.35580
O          0.64274        3.86924        4.22449
C          1.42114        8.82809        1.93648
C         -2.40822        7.77652        0.12484
C         -0.82216        9.98551        5.59171
C         -2.42093       11.06683        2.43183
C          2.63403        9.23161        1.16748
C         -3.25534        6.81221       -0.66114
C         -0.52393       10.90828        6.72323
C         -3.08251       12.17501        3.21081
H         -0.96406        6.99928        5.72254
H          0.63443        7.31715        5.84038
H          1.35619        1.81030        2.45080
H          1.40285        0.90333        3.80704
H         -0.68052        5.20620        1.80365
H          0.32714        5.25613        3.08897
H         -2.79701        2.98539        9.07617
H         -3.33740        2.00065       10.26362
H          1.41943        3.33163        3.89193
H          0.92253        4.40046        5.02545
H          2.41221        9.75704        0.25067
H          3.53380        8.64558        1.04064
H          2.77748        9.94601        1.96843
H         -4.02507        6.35663       -0.05593
H         -2.58736        6.04836       -1.03165
H         -3.71006        7.32649       -1.49505
H         -1.10116       10.65425        7.60009
H         -0.90805       11.81908        6.28980
H          0.51072       11.04920        7.00087
H         -2.22568       12.72960        2.85428
H         -3.11075       12.21023        4.29041
H         -3.98630       12.61069        2.81233
